#======================================================================

# CRYSTAL DATA

#----------------------------------------------------------------------

data_VESTA_phase_1


_chemical_name_common                  'ja5b13294_si_002                      '
_cell_length_a                         7.56315
_cell_length_b                         7.56315
_cell_length_c                         7.56315
_cell_angle_alpha                      60.00000
_cell_angle_beta                       60.00000
_cell_angle_gamma                      60.00000
_space_group_name_H-M_alt              'P 1'
_space_group_IT_number                 1

loop_
_space_group_symop_operation_xyz
   'x, y, z'

loop_
   _atom_site_label
   _atom_site_occupancy
   _atom_site_fract_x
   _atom_site_fract_y
   _atom_site_fract_z
   _atom_site_adp_type
   _atom_site_B_iso_or_equiv
   _atom_site_type_symbol
   Ag1        1.0    -0.000000     -0.000000      0.000000     Biso  1.000000 Ag
   Bi1        1.0     0.500000      0.500000      0.500000     Biso  1.000000 Bi
   Cl1        1.0     0.247896      0.752104      0.247896     Biso  1.000000 Cl
   Cl2        1.0     0.752104      0.247896      0.752104     Biso  1.000000 Cl
   Cl3        1.0     0.247896      0.247896      0.752104     Biso  1.000000 Cl
   Cl4        1.0     0.752104      0.752104      0.247896     Biso  1.000000 Cl
   Cl5        1.0     0.752104      0.247896      0.247896     Biso  1.000000 Cl
   Cl6        1.0     0.247896      0.752104      0.752104     Biso  1.000000 Cl
   Cs1        1.0     0.250000      0.250000      0.250000     Biso  1.000000 Cs
   Cs2        1.0     0.750000      0.750000      0.750000     Biso  1.000000 Cs
