#======================================================================

# CRYSTAL DATA

#----------------------------------------------------------------------

data_VESTA_phase_1


_chemical_name_common                  'ja5b13294_si_002                      '
_cell_length_a                         7.92039
_cell_length_b                         7.92039
_cell_length_c                         7.92039
_cell_angle_alpha                      60.00000
_cell_angle_beta                       60.00000
_cell_angle_gamma                      60.00000
_space_group_name_H-M_alt              'P 1'
_space_group_IT_number                 1

loop_
_space_group_symop_operation_xyz
   'x, y, z'

loop_
   _atom_site_label
   _atom_site_occupancy
   _atom_site_fract_x
   _atom_site_fract_y
   _atom_site_fract_z
   _atom_site_adp_type
   _atom_site_B_iso_or_equiv
   _atom_site_type_symbol
   Bi1        1.0     0.500000      0.500000      0.500000     Biso  1.000000 Bi
   Ag1        1.0    -0.000000      0.000000      0.000000     Biso  1.000000 Ag
   Cs1        1.0     0.750000      0.750000      0.750000     Biso  1.000000 Cs
   Cs2        1.0     0.250000      0.250000      0.250000     Biso  1.000000 Cs
   Br1        1.0     0.246356      0.753644      0.753644     Biso  1.000000 Br
   Br2        1.0     0.753644      0.246356      0.246356     Biso  1.000000 Br
   Br3        1.0     0.753644      0.246356      0.753644     Biso  1.000000 Br
   Br4        1.0     0.246356      0.753644      0.246356     Biso  1.000000 Br
   Br5        1.0     0.753644      0.753644      0.246356     Biso  1.000000 Br
   Br6        1.0     0.246356      0.246356      0.753644     Biso  1.000000 Br
